<?xml version="1.0" encoding="UTF-8"?>

<!-- generated on Sat Dec 22 08:40:24 2018 by SUMO netgenerate Version 0.25.0
<?xml version="1.0" encoding="UTF-8"?>

<configuration xmlns:xsi="http://www.w3.org/2001/XMLSchema-instance" xsi:noNamespaceSchemaLocation="http://sumo.dlr.de/xsd/netgenerateConfiguration.xsd">

    <grid_network>
        <grid value="true"/>
        <grid.y-number value="3"/>
        <grid.x-length value="20000"/>
        <grid.y-length value="50"/>
    </grid_network>

    <output>
        <output-file value="highway.net.xml"/>
    </output>

</configuration>
-->

<net version="0.25" xmlns:xsi="http://www.w3.org/2001/XMLSchema-instance" xsi:noNamespaceSchemaLocation="http://sumo.dlr.de/xsd/net_file.xsd">

    <location netOffset="0.00,0.00" convBoundary="0.00,0.00,80000.00,100.00" origBoundary="0.00,0.00,80000.00,100.00" projParameter="!"/>

    <edge id=":0/0_0" function="internal">
        <lane id=":0/0_0_0" index="0" speed="13.90" length="7.90" shape="-1.65,3.25 -1.34,1.11 -0.43,-0.43 1.11,-1.34 3.25,-1.65"/>
    </edge>
    <edge id=":0/0_1" function="internal">
        <lane id=":0/0_1_0" index="0" speed="13.90" length="2.80" shape="-1.65,3.25 -0.83,2.01 0.00,1.60 0.35,1.77"/>
    </edge>
    <edge id=":0/0_4" function="internal">
        <lane id=":0/0_4_0" index="0" speed="13.90" length="2.02" shape="0.35,1.77 0.83,2.01 1.65,3.25"/>
    </edge>
    <edge id=":0/0_2" function="internal">
        <lane id=":0/0_2_0" index="0" speed="13.90" length="2.58" shape="3.25,1.65 2.55,1.75 2.05,2.05 1.75,2.55 1.65,3.25"/>
    </edge>
    <edge id=":0/0_3" function="internal">
        <lane id=":0/0_3_0" index="0" speed="13.90" length="2.20" shape="3.25,1.65 2.01,0.83 1.69,0.19"/>
    </edge>
    <edge id=":0/0_5" function="internal">
        <lane id=":0/0_5_0" index="0" speed="13.90" length="2.62" shape="1.69,0.19 1.60,0.00 2.01,-0.83 3.25,-1.65"/>
    </edge>
    <edge id=":0/1_0" function="internal">
        <lane id=":0/1_0_0" index="0" speed="13.90" length="9.50" shape="-1.65,54.75 -1.65,45.25"/>
    </edge>
    <edge id=":0/1_1" function="internal">
        <lane id=":0/1_1_0" index="0" speed="13.90" length="5.28" shape="-1.65,54.75 -1.25,51.95 -0.05,49.95 0.05,49.89"/>
    </edge>
    <edge id=":0/1_2" function="internal">
        <lane id=":0/1_2_0" index="0" speed="13.90" length="2.41" shape="-1.65,54.75 -0.83,53.51 0.00,53.10"/>
    </edge>
    <edge id=":0/1_9" function="internal">
        <lane id=":0/1_9_0" index="0" speed="13.90" length="5.04" shape="0.05,49.89 1.95,48.75 4.75,48.35"/>
    </edge>
    <edge id=":0/1_10" function="internal">
        <lane id=":0/1_10_0" index="0" speed="13.90" length="2.41" shape="0.00,53.10 0.83,53.51 1.65,54.75"/>
    </edge>
    <edge id=":0/1_3" function="internal">
        <lane id=":0/1_3_0" index="0" speed="13.90" length="5.00" shape="4.75,51.65 3.39,51.84 2.42,52.42 1.84,53.39 1.65,54.75"/>
    </edge>
    <edge id=":0/1_4" function="internal">
        <lane id=":0/1_4_0" index="0" speed="13.90" length="10.32" shape="4.75,51.65 1.95,51.25 -0.05,50.05 -1.25,48.05 -1.65,45.25"/>
    </edge>
    <edge id=":0/1_5" function="internal">
        <lane id=":0/1_5_0" index="0" speed="13.90" length="4.82" shape="4.75,51.65 3.51,50.82 3.10,50.00 3.51,49.17 4.75,48.35"/>
    </edge>
    <edge id=":0/1_6" function="internal">
        <lane id=":0/1_6_0" index="0" speed="13.90" length="5.00" shape="1.65,45.25 1.84,46.61 2.42,47.57 3.39,48.16 4.75,48.35"/>
    </edge>
    <edge id=":0/1_7" function="internal">
        <lane id=":0/1_7_0" index="0" speed="13.90" length="9.50" shape="1.65,45.25 1.65,54.75"/>
    </edge>
    <edge id=":0/1_8" function="internal">
        <lane id=":0/1_8_0" index="0" speed="13.90" length="2.41" shape="1.65,45.25 0.83,46.49 0.00,46.90"/>
    </edge>
    <edge id=":0/1_11" function="internal">
        <lane id=":0/1_11_0" index="0" speed="13.90" length="2.41" shape="0.00,46.90 -0.83,46.49 -1.65,45.25"/>
    </edge>
    <edge id=":0/2_0" function="internal">
        <lane id=":0/2_0_0" index="0" speed="13.90" length="7.90" shape="3.25,101.65 1.11,101.34 -0.43,100.43 -1.34,98.89 -1.65,96.75"/>
    </edge>
    <edge id=":0/2_1" function="internal">
        <lane id=":0/2_1_0" index="0" speed="13.90" length="2.80" shape="3.25,101.65 2.01,100.82 1.60,100.00 1.77,99.65"/>
    </edge>
    <edge id=":0/2_4" function="internal">
        <lane id=":0/2_4_0" index="0" speed="13.90" length="2.02" shape="1.77,99.65 2.01,99.17 3.25,98.35"/>
    </edge>
    <edge id=":0/2_2" function="internal">
        <lane id=":0/2_2_0" index="0" speed="13.90" length="2.58" shape="1.65,96.75 1.75,97.45 2.05,97.95 2.55,98.25 3.25,98.35"/>
    </edge>
    <edge id=":0/2_3" function="internal">
        <lane id=":0/2_3_0" index="0" speed="13.90" length="2.20" shape="1.65,96.75 0.83,97.99 0.19,98.31"/>
    </edge>
    <edge id=":0/2_5" function="internal">
        <lane id=":0/2_5_0" index="0" speed="13.90" length="2.62" shape="0.19,98.31 0.00,98.40 -0.83,97.99 -1.65,96.75"/>
    </edge>
    <edge id=":1/0_0" function="internal">
        <lane id=":1/0_0_0" index="0" speed="13.90" length="5.00" shape="19998.35,4.75 19998.16,3.39 19997.57,2.43 19996.61,1.84 19995.25,1.65"/>
    </edge>
    <edge id=":1/0_1" function="internal">
        <lane id=":1/0_1_0" index="0" speed="13.90" length="10.32" shape="19998.35,4.75 19998.75,1.95 19999.95,-0.05 20001.95,-1.25 20004.75,-1.65"/>
    </edge>
    <edge id=":1/0_2" function="internal">
        <lane id=":1/0_2_0" index="0" speed="13.90" length="4.82" shape="19998.35,4.75 19999.18,3.51 20000.00,3.10 20000.83,3.51 20001.65,4.75"/>
    </edge>
    <edge id=":1/0_3" function="internal">
        <lane id=":1/0_3_0" index="0" speed="13.90" length="5.00" shape="20004.75,1.65 20003.39,1.84 20002.43,2.43 20001.84,3.39 20001.65,4.75"/>
    </edge>
    <edge id=":1/0_4" function="internal">
        <lane id=":1/0_4_0" index="0" speed="13.90" length="9.50" shape="20004.75,1.65 19995.25,1.65"/>
    </edge>
    <edge id=":1/0_5" function="internal">
        <lane id=":1/0_5_0" index="0" speed="13.90" length="2.41" shape="20004.75,1.65 20003.51,0.83 20003.10,0.00"/>
    </edge>
    <edge id=":1/0_9" function="internal">
        <lane id=":1/0_9_0" index="0" speed="13.90" length="2.41" shape="20003.10,0.00 20003.51,-0.83 20004.75,-1.65"/>
    </edge>
    <edge id=":1/0_6" function="internal">
        <lane id=":1/0_6_0" index="0" speed="13.90" length="9.50" shape="19995.25,-1.65 20004.75,-1.65"/>
    </edge>
    <edge id=":1/0_7" function="internal">
        <lane id=":1/0_7_0" index="0" speed="13.90" length="5.28" shape="19995.25,-1.65 19998.05,-1.25 20000.05,-0.05 20000.11,0.05"/>
    </edge>
    <edge id=":1/0_8" function="internal">
        <lane id=":1/0_8_0" index="0" speed="13.90" length="2.41" shape="19995.25,-1.65 19996.49,-0.83 19996.90,0.00"/>
    </edge>
    <edge id=":1/0_10" function="internal">
        <lane id=":1/0_10_0" index="0" speed="13.90" length="5.04" shape="20000.11,0.05 20001.25,1.95 20001.65,4.75"/>
    </edge>
    <edge id=":1/0_11" function="internal">
        <lane id=":1/0_11_0" index="0" speed="13.90" length="2.41" shape="19996.90,0.00 19996.49,0.83 19995.25,1.65"/>
    </edge>
    <edge id=":1/1_0" function="internal">
        <lane id=":1/1_0_0" index="0" speed="13.90" length="5.00" shape="19998.35,54.75 19998.16,53.39 19997.57,52.43 19996.61,51.84 19995.25,51.65"/>
    </edge>
    <edge id=":1/1_1" function="internal">
        <lane id=":1/1_1_0" index="0" speed="13.90" length="9.50" shape="19998.35,54.75 19998.35,45.25"/>
    </edge>
    <edge id=":1/1_2" function="internal">
        <lane id=":1/1_2_0" index="0" speed="13.90" length="5.28" shape="19998.35,54.75 19998.75,51.95 19999.95,49.95 20000.05,49.89"/>
    </edge>
    <edge id=":1/1_3" function="internal">
        <lane id=":1/1_3_0" index="0" speed="13.90" length="2.41" shape="19998.35,54.75 19999.18,53.51 20000.00,53.10"/>
    </edge>
    <edge id=":1/1_16" function="internal">
        <lane id=":1/1_16_0" index="0" speed="13.90" length="5.04" shape="20000.05,49.89 20001.95,48.75 20004.75,48.35"/>
    </edge>
    <edge id=":1/1_17" function="internal">
        <lane id=":1/1_17_0" index="0" speed="13.90" length="2.41" shape="20000.00,53.10 20000.83,53.51 20001.65,54.75"/>
    </edge>
    <edge id=":1/1_4" function="internal">
        <lane id=":1/1_4_0" index="0" speed="13.90" length="5.00" shape="20004.75,51.65 20003.39,51.84 20002.43,52.42 20001.84,53.39 20001.65,54.75"/>
    </edge>
    <edge id=":1/1_5" function="internal">
        <lane id=":1/1_5_0" index="0" speed="13.90" length="9.50" shape="20004.75,51.65 19995.25,51.65"/>
    </edge>
    <edge id=":1/1_6" function="internal">
        <lane id=":1/1_6_0" index="0" speed="13.90" length="10.32" shape="20004.75,51.65 20001.95,51.25 19999.95,50.05 19998.75,48.05 19998.35,45.25"/>
    </edge>
    <edge id=":1/1_7" function="internal">
        <lane id=":1/1_7_0" index="0" speed="13.90" length="4.82" shape="20004.75,51.65 20003.51,50.82 20003.10,50.00 20003.51,49.17 20004.75,48.35"/>
    </edge>
    <edge id=":1/1_8" function="internal">
        <lane id=":1/1_8_0" index="0" speed="13.90" length="5.00" shape="20001.65,45.25 20001.84,46.61 20002.43,47.57 20003.39,48.16 20004.75,48.35"/>
    </edge>
    <edge id=":1/1_9" function="internal">
        <lane id=":1/1_9_0" index="0" speed="13.90" length="9.50" shape="20001.65,45.25 20001.65,54.75"/>
    </edge>
    <edge id=":1/1_10" function="internal">
        <lane id=":1/1_10_0" index="0" speed="13.90" length="5.28" shape="20001.65,45.25 20001.25,48.05 20000.05,50.05 19999.95,50.11"/>
    </edge>
    <edge id=":1/1_11" function="internal">
        <lane id=":1/1_11_0" index="0" speed="13.90" length="2.41" shape="20001.65,45.25 20000.82,46.49 20000.00,46.90"/>
    </edge>
    <edge id=":1/1_18" function="internal">
        <lane id=":1/1_18_0" index="0" speed="13.90" length="5.04" shape="19999.95,50.11 19998.05,51.25 19995.25,51.65"/>
    </edge>
    <edge id=":1/1_19" function="internal">
        <lane id=":1/1_19_0" index="0" speed="13.90" length="2.41" shape="20000.00,46.90 19999.17,46.49 19998.35,45.25"/>
    </edge>
    <edge id=":1/1_12" function="internal">
        <lane id=":1/1_12_0" index="0" speed="13.90" length="5.00" shape="19995.25,48.35 19996.61,48.16 19997.57,47.58 19998.16,46.61 19998.35,45.25"/>
    </edge>
    <edge id=":1/1_13" function="internal">
        <lane id=":1/1_13_0" index="0" speed="13.90" length="9.50" shape="19995.25,48.35 20004.75,48.35"/>
    </edge>
    <edge id=":1/1_14" function="internal">
        <lane id=":1/1_14_0" index="0" speed="13.90" length="10.32" shape="19995.25,48.35 19998.05,48.75 20000.05,49.95 20001.25,51.95 20001.65,54.75"/>
    </edge>
    <edge id=":1/1_15" function="internal">
        <lane id=":1/1_15_0" index="0" speed="13.90" length="4.82" shape="19995.25,48.35 19996.49,49.18 19996.90,50.00 19996.49,50.83 19995.25,51.65"/>
    </edge>
    <edge id=":1/2_0" function="internal">
        <lane id=":1/2_0_0" index="0" speed="13.90" length="9.50" shape="20004.75,101.65 19995.25,101.65"/>
    </edge>
    <edge id=":1/2_1" function="internal">
        <lane id=":1/2_1_0" index="0" speed="13.90" length="5.28" shape="20004.75,101.65 20001.95,101.25 19999.95,100.05 19999.89,99.95"/>
    </edge>
    <edge id=":1/2_2" function="internal">
        <lane id=":1/2_2_0" index="0" speed="13.90" length="2.41" shape="20004.75,101.65 20003.51,100.82 20003.10,100.00"/>
    </edge>
    <edge id=":1/2_9" function="internal">
        <lane id=":1/2_9_0" index="0" speed="13.90" length="5.04" shape="19999.89,99.95 19998.75,98.05 19998.35,95.25"/>
    </edge>
    <edge id=":1/2_10" function="internal">
        <lane id=":1/2_10_0" index="0" speed="13.90" length="2.41" shape="20003.10,100.00 20003.51,99.17 20004.75,98.35"/>
    </edge>
    <edge id=":1/2_3" function="internal">
        <lane id=":1/2_3_0" index="0" speed="13.90" length="5.00" shape="20001.65,95.25 20001.84,96.61 20002.43,97.57 20003.39,98.16 20004.75,98.35"/>
    </edge>
    <edge id=":1/2_4" function="internal">
        <lane id=":1/2_4_0" index="0" speed="13.90" length="10.32" shape="20001.65,95.25 20001.25,98.05 20000.05,100.05 19998.05,101.25 19995.25,101.65"/>
    </edge>
    <edge id=":1/2_5" function="internal">
        <lane id=":1/2_5_0" index="0" speed="13.90" length="4.82" shape="20001.65,95.25 20000.82,96.49 20000.00,96.90 19999.17,96.49 19998.35,95.25"/>
    </edge>
    <edge id=":1/2_6" function="internal">
        <lane id=":1/2_6_0" index="0" speed="13.90" length="5.00" shape="19995.25,98.35 19996.61,98.16 19997.57,97.57 19998.16,96.61 19998.35,95.25"/>
    </edge>
    <edge id=":1/2_7" function="internal">
        <lane id=":1/2_7_0" index="0" speed="13.90" length="9.50" shape="19995.25,98.35 20004.75,98.35"/>
    </edge>
    <edge id=":1/2_8" function="internal">
        <lane id=":1/2_8_0" index="0" speed="13.90" length="2.41" shape="19995.25,98.35 19996.49,99.18 19996.90,100.00"/>
    </edge>
    <edge id=":1/2_11" function="internal">
        <lane id=":1/2_11_0" index="0" speed="13.90" length="2.41" shape="19996.90,100.00 19996.49,100.83 19995.25,101.65"/>
    </edge>
    <edge id=":2/0_0" function="internal">
        <lane id=":2/0_0_0" index="0" speed="13.90" length="5.00" shape="39998.35,4.75 39998.16,3.39 39997.57,2.43 39996.61,1.84 39995.25,1.65"/>
    </edge>
    <edge id=":2/0_1" function="internal">
        <lane id=":2/0_1_0" index="0" speed="13.90" length="10.32" shape="39998.35,4.75 39998.75,1.95 39999.95,-0.05 40001.95,-1.25 40004.75,-1.65"/>
    </edge>
    <edge id=":2/0_2" function="internal">
        <lane id=":2/0_2_0" index="0" speed="13.90" length="4.82" shape="39998.35,4.75 39999.17,3.51 40000.00,3.10 40000.82,3.51 40001.65,4.75"/>
    </edge>
    <edge id=":2/0_3" function="internal">
        <lane id=":2/0_3_0" index="0" speed="13.90" length="5.00" shape="40004.75,1.65 40003.39,1.84 40002.43,2.43 40001.84,3.39 40001.65,4.75"/>
    </edge>
    <edge id=":2/0_4" function="internal">
        <lane id=":2/0_4_0" index="0" speed="13.90" length="9.50" shape="40004.75,1.65 39995.25,1.65"/>
    </edge>
    <edge id=":2/0_5" function="internal">
        <lane id=":2/0_5_0" index="0" speed="13.90" length="2.41" shape="40004.75,1.65 40003.51,0.83 40003.10,0.00"/>
    </edge>
    <edge id=":2/0_9" function="internal">
        <lane id=":2/0_9_0" index="0" speed="13.90" length="2.41" shape="40003.10,0.00 40003.51,-0.83 40004.75,-1.65"/>
    </edge>
    <edge id=":2/0_6" function="internal">
        <lane id=":2/0_6_0" index="0" speed="13.90" length="9.50" shape="39995.25,-1.65 40004.75,-1.65"/>
    </edge>
    <edge id=":2/0_7" function="internal">
        <lane id=":2/0_7_0" index="0" speed="13.90" length="5.28" shape="39995.25,-1.65 39998.05,-1.25 40000.05,-0.05 40000.11,0.05"/>
    </edge>
    <edge id=":2/0_8" function="internal">
        <lane id=":2/0_8_0" index="0" speed="13.90" length="2.41" shape="39995.25,-1.65 39996.49,-0.83 39996.90,0.00"/>
    </edge>
    <edge id=":2/0_10" function="internal">
        <lane id=":2/0_10_0" index="0" speed="13.90" length="5.04" shape="40000.11,0.05 40001.25,1.95 40001.65,4.75"/>
    </edge>
    <edge id=":2/0_11" function="internal">
        <lane id=":2/0_11_0" index="0" speed="13.90" length="2.41" shape="39996.90,0.00 39996.49,0.83 39995.25,1.65"/>
    </edge>
    <edge id=":2/1_0" function="internal">
        <lane id=":2/1_0_0" index="0" speed="13.90" length="5.00" shape="39998.35,54.75 39998.16,53.39 39997.57,52.43 39996.61,51.84 39995.25,51.65"/>
    </edge>
    <edge id=":2/1_1" function="internal">
        <lane id=":2/1_1_0" index="0" speed="13.90" length="9.50" shape="39998.35,54.75 39998.35,45.25"/>
    </edge>
    <edge id=":2/1_2" function="internal">
        <lane id=":2/1_2_0" index="0" speed="13.90" length="5.28" shape="39998.35,54.75 39998.75,51.95 39999.95,49.95 40000.05,49.89"/>
    </edge>
    <edge id=":2/1_3" function="internal">
        <lane id=":2/1_3_0" index="0" speed="13.90" length="2.41" shape="39998.35,54.75 39999.17,53.51 40000.00,53.10"/>
    </edge>
    <edge id=":2/1_16" function="internal">
        <lane id=":2/1_16_0" index="0" speed="13.90" length="5.04" shape="40000.05,49.89 40001.95,48.75 40004.75,48.35"/>
    </edge>
    <edge id=":2/1_17" function="internal">
        <lane id=":2/1_17_0" index="0" speed="13.90" length="2.41" shape="40000.00,53.10 40000.82,53.51 40001.65,54.75"/>
    </edge>
    <edge id=":2/1_4" function="internal">
        <lane id=":2/1_4_0" index="0" speed="13.90" length="5.00" shape="40004.75,51.65 40003.39,51.84 40002.43,52.42 40001.84,53.39 40001.65,54.75"/>
    </edge>
    <edge id=":2/1_5" function="internal">
        <lane id=":2/1_5_0" index="0" speed="13.90" length="9.50" shape="40004.75,51.65 39995.25,51.65"/>
    </edge>
    <edge id=":2/1_6" function="internal">
        <lane id=":2/1_6_0" index="0" speed="13.90" length="10.32" shape="40004.75,51.65 40001.95,51.25 39999.95,50.05 39998.75,48.05 39998.35,45.25"/>
    </edge>
    <edge id=":2/1_7" function="internal">
        <lane id=":2/1_7_0" index="0" speed="13.90" length="4.82" shape="40004.75,51.65 40003.51,50.82 40003.10,50.00 40003.51,49.17 40004.75,48.35"/>
    </edge>
    <edge id=":2/1_8" function="internal">
        <lane id=":2/1_8_0" index="0" speed="13.90" length="5.00" shape="40001.65,45.25 40001.84,46.61 40002.43,47.57 40003.39,48.16 40004.75,48.35"/>
    </edge>
    <edge id=":2/1_9" function="internal">
        <lane id=":2/1_9_0" index="0" speed="13.90" length="9.50" shape="40001.65,45.25 40001.65,54.75"/>
    </edge>
    <edge id=":2/1_10" function="internal">
        <lane id=":2/1_10_0" index="0" speed="13.90" length="5.28" shape="40001.65,45.25 40001.25,48.05 40000.05,50.05 39999.95,50.11"/>
    </edge>
    <edge id=":2/1_11" function="internal">
        <lane id=":2/1_11_0" index="0" speed="13.90" length="2.41" shape="40001.65,45.25 40000.83,46.49 40000.00,46.90"/>
    </edge>
    <edge id=":2/1_18" function="internal">
        <lane id=":2/1_18_0" index="0" speed="13.90" length="5.04" shape="39999.95,50.11 39998.05,51.25 39995.25,51.65"/>
    </edge>
    <edge id=":2/1_19" function="internal">
        <lane id=":2/1_19_0" index="0" speed="13.90" length="2.41" shape="40000.00,46.90 39999.18,46.49 39998.35,45.25"/>
    </edge>
    <edge id=":2/1_12" function="internal">
        <lane id=":2/1_12_0" index="0" speed="13.90" length="5.00" shape="39995.25,48.35 39996.61,48.16 39997.57,47.58 39998.16,46.61 39998.35,45.25"/>
    </edge>
    <edge id=":2/1_13" function="internal">
        <lane id=":2/1_13_0" index="0" speed="13.90" length="9.50" shape="39995.25,48.35 40004.75,48.35"/>
    </edge>
    <edge id=":2/1_14" function="internal">
        <lane id=":2/1_14_0" index="0" speed="13.90" length="10.32" shape="39995.25,48.35 39998.05,48.75 40000.05,49.95 40001.25,51.95 40001.65,54.75"/>
    </edge>
    <edge id=":2/1_15" function="internal">
        <lane id=":2/1_15_0" index="0" speed="13.90" length="4.82" shape="39995.25,48.35 39996.49,49.18 39996.90,50.00 39996.49,50.83 39995.25,51.65"/>
    </edge>
    <edge id=":2/2_0" function="internal">
        <lane id=":2/2_0_0" index="0" speed="13.90" length="9.50" shape="40004.75,101.65 39995.25,101.65"/>
    </edge>
    <edge id=":2/2_1" function="internal">
        <lane id=":2/2_1_0" index="0" speed="13.90" length="5.28" shape="40004.75,101.65 40001.95,101.25 39999.95,100.05 39999.89,99.95"/>
    </edge>
    <edge id=":2/2_2" function="internal">
        <lane id=":2/2_2_0" index="0" speed="13.90" length="2.41" shape="40004.75,101.65 40003.51,100.82 40003.10,100.00"/>
    </edge>
    <edge id=":2/2_9" function="internal">
        <lane id=":2/2_9_0" index="0" speed="13.90" length="5.04" shape="39999.89,99.95 39998.75,98.05 39998.35,95.25"/>
    </edge>
    <edge id=":2/2_10" function="internal">
        <lane id=":2/2_10_0" index="0" speed="13.90" length="2.41" shape="40003.10,100.00 40003.51,99.17 40004.75,98.35"/>
    </edge>
    <edge id=":2/2_3" function="internal">
        <lane id=":2/2_3_0" index="0" speed="13.90" length="5.00" shape="40001.65,95.25 40001.84,96.61 40002.43,97.57 40003.39,98.16 40004.75,98.35"/>
    </edge>
    <edge id=":2/2_4" function="internal">
        <lane id=":2/2_4_0" index="0" speed="13.90" length="10.32" shape="40001.65,95.25 40001.25,98.05 40000.05,100.05 39998.05,101.25 39995.25,101.65"/>
    </edge>
    <edge id=":2/2_5" function="internal">
        <lane id=":2/2_5_0" index="0" speed="13.90" length="4.82" shape="40001.65,95.25 40000.83,96.49 40000.00,96.90 39999.18,96.49 39998.35,95.25"/>
    </edge>
    <edge id=":2/2_6" function="internal">
        <lane id=":2/2_6_0" index="0" speed="13.90" length="5.00" shape="39995.25,98.35 39996.61,98.16 39997.57,97.57 39998.16,96.61 39998.35,95.25"/>
    </edge>
    <edge id=":2/2_7" function="internal">
        <lane id=":2/2_7_0" index="0" speed="13.90" length="9.50" shape="39995.25,98.35 40004.75,98.35"/>
    </edge>
    <edge id=":2/2_8" function="internal">
        <lane id=":2/2_8_0" index="0" speed="13.90" length="2.41" shape="39995.25,98.35 39996.49,99.18 39996.90,100.00"/>
    </edge>
    <edge id=":2/2_11" function="internal">
        <lane id=":2/2_11_0" index="0" speed="13.90" length="2.41" shape="39996.90,100.00 39996.49,100.83 39995.25,101.65"/>
    </edge>
    <edge id=":3/0_0" function="internal">
        <lane id=":3/0_0_0" index="0" speed="13.90" length="5.00" shape="59998.35,4.75 59998.16,3.39 59997.57,2.43 59996.61,1.84 59995.25,1.65"/>
    </edge>
    <edge id=":3/0_1" function="internal">
        <lane id=":3/0_1_0" index="0" speed="13.90" length="10.32" shape="59998.35,4.75 59998.75,1.95 59999.95,-0.05 60001.95,-1.25 60004.75,-1.65"/>
    </edge>
    <edge id=":3/0_2" function="internal">
        <lane id=":3/0_2_0" index="0" speed="13.90" length="4.82" shape="59998.35,4.75 59999.18,3.51 60000.00,3.10 60000.82,3.51 60001.65,4.75"/>
    </edge>
    <edge id=":3/0_3" function="internal">
        <lane id=":3/0_3_0" index="0" speed="13.90" length="5.00" shape="60004.75,1.65 60003.39,1.84 60002.42,2.43 60001.84,3.39 60001.65,4.75"/>
    </edge>
    <edge id=":3/0_4" function="internal">
        <lane id=":3/0_4_0" index="0" speed="13.90" length="9.50" shape="60004.75,1.65 59995.25,1.65"/>
    </edge>
    <edge id=":3/0_5" function="internal">
        <lane id=":3/0_5_0" index="0" speed="13.90" length="2.41" shape="60004.75,1.65 60003.51,0.83 60003.10,0.00"/>
    </edge>
    <edge id=":3/0_9" function="internal">
        <lane id=":3/0_9_0" index="0" speed="13.90" length="2.41" shape="60003.10,0.00 60003.51,-0.83 60004.75,-1.65"/>
    </edge>
    <edge id=":3/0_6" function="internal">
        <lane id=":3/0_6_0" index="0" speed="13.90" length="9.50" shape="59995.25,-1.65 60004.75,-1.65"/>
    </edge>
    <edge id=":3/0_7" function="internal">
        <lane id=":3/0_7_0" index="0" speed="13.90" length="5.28" shape="59995.25,-1.65 59998.05,-1.25 60000.05,-0.05 60000.11,0.05"/>
    </edge>
    <edge id=":3/0_8" function="internal">
        <lane id=":3/0_8_0" index="0" speed="13.90" length="2.41" shape="59995.25,-1.65 59996.49,-0.83 59996.90,0.00"/>
    </edge>
    <edge id=":3/0_10" function="internal">
        <lane id=":3/0_10_0" index="0" speed="13.90" length="5.04" shape="60000.11,0.05 60001.25,1.95 60001.65,4.75"/>
    </edge>
    <edge id=":3/0_11" function="internal">
        <lane id=":3/0_11_0" index="0" speed="13.90" length="2.41" shape="59996.90,0.00 59996.49,0.83 59995.25,1.65"/>
    </edge>
    <edge id=":3/1_0" function="internal">
        <lane id=":3/1_0_0" index="0" speed="13.90" length="5.00" shape="59998.35,54.75 59998.16,53.39 59997.57,52.43 59996.61,51.84 59995.25,51.65"/>
    </edge>
    <edge id=":3/1_1" function="internal">
        <lane id=":3/1_1_0" index="0" speed="13.90" length="9.50" shape="59998.35,54.75 59998.35,45.25"/>
    </edge>
    <edge id=":3/1_2" function="internal">
        <lane id=":3/1_2_0" index="0" speed="13.90" length="5.28" shape="59998.35,54.75 59998.75,51.95 59999.95,49.95 60000.05,49.89"/>
    </edge>
    <edge id=":3/1_3" function="internal">
        <lane id=":3/1_3_0" index="0" speed="13.90" length="2.41" shape="59998.35,54.75 59999.18,53.51 60000.00,53.10"/>
    </edge>
    <edge id=":3/1_16" function="internal">
        <lane id=":3/1_16_0" index="0" speed="13.90" length="5.04" shape="60000.05,49.89 60001.95,48.75 60004.75,48.35"/>
    </edge>
    <edge id=":3/1_17" function="internal">
        <lane id=":3/1_17_0" index="0" speed="13.90" length="2.41" shape="60000.00,53.10 60000.82,53.51 60001.65,54.75"/>
    </edge>
    <edge id=":3/1_4" function="internal">
        <lane id=":3/1_4_0" index="0" speed="13.90" length="5.00" shape="60004.75,51.65 60003.39,51.84 60002.42,52.42 60001.84,53.39 60001.65,54.75"/>
    </edge>
    <edge id=":3/1_5" function="internal">
        <lane id=":3/1_5_0" index="0" speed="13.90" length="9.50" shape="60004.75,51.65 59995.25,51.65"/>
    </edge>
    <edge id=":3/1_6" function="internal">
        <lane id=":3/1_6_0" index="0" speed="13.90" length="10.32" shape="60004.75,51.65 60001.95,51.25 59999.95,50.05 59998.75,48.05 59998.35,45.25"/>
    </edge>
    <edge id=":3/1_7" function="internal">
        <lane id=":3/1_7_0" index="0" speed="13.90" length="4.82" shape="60004.75,51.65 60003.51,50.82 60003.10,50.00 60003.51,49.17 60004.75,48.35"/>
    </edge>
    <edge id=":3/1_8" function="internal">
        <lane id=":3/1_8_0" index="0" speed="13.90" length="5.00" shape="60001.65,45.25 60001.84,46.61 60002.43,47.57 60003.39,48.16 60004.75,48.35"/>
    </edge>
    <edge id=":3/1_9" function="internal">
        <lane id=":3/1_9_0" index="0" speed="13.90" length="9.50" shape="60001.65,45.25 60001.65,54.75"/>
    </edge>
    <edge id=":3/1_10" function="internal">
        <lane id=":3/1_10_0" index="0" speed="13.90" length="5.28" shape="60001.65,45.25 60001.25,48.05 60000.05,50.05 59999.95,50.11"/>
    </edge>
    <edge id=":3/1_11" function="internal">
        <lane id=":3/1_11_0" index="0" speed="13.90" length="2.41" shape="60001.65,45.25 60000.82,46.49 60000.00,46.90"/>
    </edge>
    <edge id=":3/1_18" function="internal">
        <lane id=":3/1_18_0" index="0" speed="13.90" length="5.04" shape="59999.95,50.11 59998.05,51.25 59995.25,51.65"/>
    </edge>
    <edge id=":3/1_19" function="internal">
        <lane id=":3/1_19_0" index="0" speed="13.90" length="2.41" shape="60000.00,46.90 59999.18,46.49 59998.35,45.25"/>
    </edge>
    <edge id=":3/1_12" function="internal">
        <lane id=":3/1_12_0" index="0" speed="13.90" length="5.00" shape="59995.25,48.35 59996.61,48.16 59997.58,47.58 59998.16,46.61 59998.35,45.25"/>
    </edge>
    <edge id=":3/1_13" function="internal">
        <lane id=":3/1_13_0" index="0" speed="13.90" length="9.50" shape="59995.25,48.35 60004.75,48.35"/>
    </edge>
    <edge id=":3/1_14" function="internal">
        <lane id=":3/1_14_0" index="0" speed="13.90" length="10.32" shape="59995.25,48.35 59998.05,48.75 60000.05,49.95 60001.25,51.95 60001.65,54.75"/>
    </edge>
    <edge id=":3/1_15" function="internal">
        <lane id=":3/1_15_0" index="0" speed="13.90" length="4.82" shape="59995.25,48.35 59996.49,49.18 59996.90,50.00 59996.49,50.83 59995.25,51.65"/>
    </edge>
    <edge id=":3/2_0" function="internal">
        <lane id=":3/2_0_0" index="0" speed="13.90" length="9.50" shape="60004.75,101.65 59995.25,101.65"/>
    </edge>
    <edge id=":3/2_1" function="internal">
        <lane id=":3/2_1_0" index="0" speed="13.90" length="5.28" shape="60004.75,101.65 60001.95,101.25 59999.95,100.05 59999.89,99.95"/>
    </edge>
    <edge id=":3/2_2" function="internal">
        <lane id=":3/2_2_0" index="0" speed="13.90" length="2.41" shape="60004.75,101.65 60003.51,100.82 60003.10,100.00"/>
    </edge>
    <edge id=":3/2_9" function="internal">
        <lane id=":3/2_9_0" index="0" speed="13.90" length="5.04" shape="59999.89,99.95 59998.75,98.05 59998.35,95.25"/>
    </edge>
    <edge id=":3/2_10" function="internal">
        <lane id=":3/2_10_0" index="0" speed="13.90" length="2.41" shape="60003.10,100.00 60003.51,99.17 60004.75,98.35"/>
    </edge>
    <edge id=":3/2_3" function="internal">
        <lane id=":3/2_3_0" index="0" speed="13.90" length="5.00" shape="60001.65,95.25 60001.84,96.61 60002.43,97.57 60003.39,98.16 60004.75,98.35"/>
    </edge>
    <edge id=":3/2_4" function="internal">
        <lane id=":3/2_4_0" index="0" speed="13.90" length="10.32" shape="60001.65,95.25 60001.25,98.05 60000.05,100.05 59998.05,101.25 59995.25,101.65"/>
    </edge>
    <edge id=":3/2_5" function="internal">
        <lane id=":3/2_5_0" index="0" speed="13.90" length="4.82" shape="60001.65,95.25 60000.82,96.49 60000.00,96.90 59999.18,96.49 59998.35,95.25"/>
    </edge>
    <edge id=":3/2_6" function="internal">
        <lane id=":3/2_6_0" index="0" speed="13.90" length="5.00" shape="59995.25,98.35 59996.61,98.16 59997.58,97.57 59998.16,96.61 59998.35,95.25"/>
    </edge>
    <edge id=":3/2_7" function="internal">
        <lane id=":3/2_7_0" index="0" speed="13.90" length="9.50" shape="59995.25,98.35 60004.75,98.35"/>
    </edge>
    <edge id=":3/2_8" function="internal">
        <lane id=":3/2_8_0" index="0" speed="13.90" length="2.41" shape="59995.25,98.35 59996.49,99.18 59996.90,100.00"/>
    </edge>
    <edge id=":3/2_11" function="internal">
        <lane id=":3/2_11_0" index="0" speed="13.90" length="2.41" shape="59996.90,100.00 59996.49,100.83 59995.25,101.65"/>
    </edge>
    <edge id=":4/0_0" function="internal">
        <lane id=":4/0_0_0" index="0" speed="13.90" length="2.58" shape="79998.35,3.25 79998.25,2.55 79997.95,2.05 79997.45,1.75 79996.75,1.65"/>
    </edge>
    <edge id=":4/0_1" function="internal">
        <lane id=":4/0_1_0" index="0" speed="13.90" length="2.20" shape="79998.35,3.25 79999.17,2.01 79999.81,1.69"/>
    </edge>
    <edge id=":4/0_4" function="internal">