[General]
cmdenv-express-mode = true
cmdenv-autoflush = true
cmdenv-status-frequency = 10000000s

#tkenv-default-config = debug
#tkenv-default-run = 1
#tkenv-image-path = bitmaps
ned-path = .

network = RSUExampleScenario

##########################################################
#            Simulation parameters                       #
##########################################################
debug-on-errors = true
print-undisposed = false

sim-time-limit = 305s
warmup-period = 300s

**.scalar-recording = true
**.vector-recording = true

**.debug = false
**.coreDebug = false

*.playgroundSizeX = 10000m
*.playgroundSizeY = 10000m
*.playgroundSizeZ = 50m


##########################################################
# Annotation parameters                                  #
##########################################################
*.annotations.draw = false

##########################################################
# Obstacle parameters                                    #
##########################################################
*.obstacles.debug = false

##########################################################
#            WorldUtility parameters                     #
##########################################################
*.world.useTorus = false
*.world.use2D = false

##########################################################
#            TraCIScenarioManager parameters             #
##########################################################
*.manager.updateInterval = 0.1s
*.manager.host = "localhost"
*.manager.port = 9999
*.manager.moduleType = "org.car2x.veins.nodes.Car"
*.manager.moduleName = "node"
*.manager.moduleDisplayString = ""
*.manager.autoShutdown = true
*.manager.margin = 25
*.manager.launchConfig = xmldoc("erlangen.launchd.xml")
*.manager.firstStepAt = 300s

##########################################################
#                       RSU SETTINGS                     #
#                                                        #
#                                                        #
##########################################################
*.rsu[0].mobility.x = 2000
*.rsu[0].mobility.y = 2000
*.rsu[0].mobility.z = 3
*.rsu[*].applType = "TraCIDemoRSU11p"
*.rsu[*].appl.debug = false
*.rsu[*].appl.headerLength = 256 bit
*.rsu[*].appl.sendBeacons = false
*.rsu[*].appl.dataOnSch = false
*.rsu[*].appl.sendData = true
*.rsu[*].appl.beaconInterval = 1s
*.rsu[*].appl.beaconPriority = 3
*.rsu[*].appl.dataPriority = 2
*.rsu[*].appl.maxOffset = 0.005s

##########################################################
#            11p specific parameters                     #
#                                                        #
#                    NIC-Settings                        #
##########################################################
*.connectionManager.pMax = 20mW
*.connectionManager.sat = -89dBm
*.connectionManager.alpha = 2.0
*.connectionManager.carrierFrequency = 5.890e9 Hz
*.connectionManager.sendDirect = true

*.**.nic.mac1609_4.useServiceChannel = false

*.**.nic.mac1609_4.txPower = 50mW
*.**.nic.mac1609_4.bitrate = 3Mbps

*.**.nic.phy80211p.sensitivity = -89dBm
#*.**.nic.phy80211p.maxTXPower = 100mW
*.**.nic.phy80211p.useThermalNoise = true
*.**.nic.phy80211p.thermalNoise = -110dBm
*.**.nic.phy80211p.decider = xmldoc("config.xml")
*.**.nic.phy80211p.analogueModels = xmldoc("config.xml")
*.**.nic.phy80211p.usePropagationDelay = true

##########################################################
#                    WaveAppLayer                        #
##########################################################
*.node[*].appl.debug = false
*.node[*].appl.headerLength = 256 bit
*.node[*].appl.dataLengthBits = 4096 bit
*.node[*].appl.sendBeacons = false
*.node[*].appl.dataOnSch = false
*.node[*].appl.sendData = false
*.node[*].appl.beaconInterval = 0.1s
*.node[*].appl.beaconPriority = 3
*.node[*].appl.dataPriority = 2
*.node[*].appl.maxOffset = 0.005s

##########################################################
#                      Mobility                          #
##########################################################
*.node[*].veinsmobilityType = "org.car2x.veins.modules.mobility.traci.TraCIMobility"
*.node[*].mobilityType = "TraCIMobility"
*.node[*].mobilityType.debug = true
*.node[*].veinsmobilityType.debug = true
*.node[*].veinsmobility.x = 0
*.node[*].veinsmobility.y = 0
*.node[*].veinsmobility.z = 1.895
#*.node[*0].veinsmobility.accidentCount = 1
#*.node[*0].veinsmobility.accidentStart = 75s
#*.node[*0].veinsmobility.accidentDuration = 30s

[Config Multihop_cars100_256bytes_2hz]
description = "*****"
*.node[*].applType = "MultihopApp"
*.node[*].appl.sendBeacons = true
**.debug = false
**.coreDebug = false
*.annotations.draw = false
*.manager.numVehicles = 100
sim-time-limit = 505s
*.node[*].appl.beaconLengthBits = 1744bit
*.node[*].appl.beaconInterval = 0.2s
*.**.nic.mac1609_4.bitrate = 3Mbps
*.connectionManager.pMax = 20mW
*.**.nic.mac1609_4.txPower = 20mW
*.manager.firstStepAt = 500s

[Config rebroad_cars60_256bytes]
description = "*****"
*.node[*].applType = "EvalApp"
*.node[*].appl.sendBeacons = true
**.debug = false
**.coreDebug = false
*.annotations.draw = false
*.manager.numVehicles = 60
sim-time-limit = 305s
*.node[*].appl.beaconLengthBits = 1744bit

[Config rebroad_cars60_512bytes]
description = "*****"
*.node[*].applType = "EvalApp"
*.node[*].appl.sendBeacons = true
**.debug = false
**.coreDebug = false
*.annotations.draw = false
*.manager.numVehicles = 100
sim-time-limit = 305s
*.node[*].appl.beaconLengthBits = 3788bit

[Config rebroad_cars100_128bytes_5hz]
description = "*****"
*.node[*].applType = "EvalApp"
*.node[*].appl.sendBeacons = true
**.debug = false
**.coreDebug = false
*.annotations.draw = false
*.manager.numVehicles = 100
sim-time-limit = 305s
*.node[*].appl.beaconLengthBits = 720bit
*.node[*].appl.beaconInterval = 0.2s
*.**.nic.mac1609_4.txPower = 20mW


[Config rebroad_cars100_256bytes_cw480]
description = "*****"
*.node[*].applType = "EvalApp"
*.node[*].appl.sendBeacons = true
**.debug = false
**.coreDebug = false
*.annotations.draw = false
*.manager.numVehicles = 100
sim-time-limit = 305s
*.node[*].appl.beaconLengthBits = 1744bit

[Config rebroad_cars50_256bytes_]
description = "*****"
*.node[*].applType = "EvalApp"
*.node[*].appl.sendBeacons = true
**.debug = false
**.coreDebug = false
*.annotations.draw = false
*.manager.numVehicles = 50
sim-time-limit = 305s
*.node[*].appl.beaconLengthBits = 1744bit

[Config rebroad_cars200_256bytes_]
description = "*****"
*.node[*].applType = "EvalApp"
*.node[*].appl.sendBeacons = true
**.debug = false
**.coreDebug = false
*.annotations.draw = false
*.manager.numVehicles = 200
sim-time-limit = 305s
*.node[*].appl.beaconLengthBits = 1744bit


[Config rebroad_cars100_512bytes]
description = "*****"
*.node[*].applType = "EvalApp"
*.node[*].appl.sendBeacons = true
**.debug = false
**.coreDebug = false
*.annotations.draw = false
*.manager.numVehicles = 100
sim-time-limit = 305s
*.node[*].appl.beaconLengthBits = 3788bit

[Config beaconing_256B]
description = "-"
*.node[*].applType = "TraCIDemo11p"
*.**.nic.mac1609_4.txPower = 20mW
*.annotations.draw = true
*.node[*].appl.sendBeacons = true
*.node[*].appl.beaconInterval = 0.1s
*.node[*].appl.beaconLengthBits = 1744bit

**.debug=false
**.coreDebug=false

[Config FloodingNew]
description = "flooding"
*.annotations.draw = true
*.node[*].applType = "App"

#*.manager.numVehicles = 100

[Config TraciNew]
description = "beaconing"
*.node[*].applType = "TraCIDemo11p"
#*.manager.numVehicles = 10

[Config nodebug]
description = "default settings"
**.debug = false
**.coreDebug = false
*.annotations.draw = false

[Config debug]
description = "(very slow!) draw and print additional debug information"
**.debug = true
**.coreDebug = true
*.annotations.draw = true
