<?xml version="1.0" encoding="UTF-8"?>

<!-- generated on Tue May  2 00:05:56 2017 by SUMO duarouter Version 0.25.0
<?xml version="1.0" encoding="UTF-8"?>

<configuration xmlns:xsi="http://www.w3.org/2001/XMLSchema-instance" xsi:noNamespaceSchemaLocation="http://sumo.dlr.de/xsd/duarouterConfiguration.xsd">

    <input>
        <net-file value="grid.net.xml"/>
        <trip-files value="grid.trips.xml"/>
    </input>

    <output>
        <output-file value="grid.rou.xml"/>
    </output>

    <processing>
        <ignore-errors value="true"/>
    </processing>

</configuration>
-->

<routes>
  
  
  						
 <route id="r0" edges="4/0to3/0 3/0to2/0 2/0to1/0 1/0to0/0
  					   0/0to0/1 0/1to0/2 0/2to0/3 0/3to0/4
  					   0/4to1/4 1/4to2/4 2/4to3/4 3/4to4/4
  					   4/4to4/3 4/3to4/2 4/2to4/1 4/1to4/0 4/0to3/0 3/0to2/0 2/0to1/0"/>
  					   
  <route id="r1" edges="0/4to1/4 1/4to2/4 2/4to3/4 3/4to4/4
  						4/4to4/3 4/3to4/2 4/2to4/1 4/1to4/0
  						4/0to3/0 3/0to3/1 3/1to3/2 3/2to3/3
  						3/3to2/3 2/3to1/3 1/3to1/2 1/2to1/1 1/1to2/1 2/1to2/2 2/2to2/3"/>
  
 
  <vType id="car0" maxSpeed="3" />
  <vType id="car1" maxSpeed="3" />
  
  <flow id="f0" type="car0" vClass="car0" route="r0" begin="0.00" end="200.00" period="1"/>
  <flow id="f1" type="car1" vClass="car1" route="r1" begin="0.00" end="200.00" period="1"/>

</routes>