[General]
cmdenv-express-mode = true
cmdenv-autoflush = true
cmdenv-status-frequency = 5s

#tkenv-default-config = debug
#tkenv-default-run = 1
#tkenv-image-path = bitmaps
ned-path = .

network = net

sim-time-limit = 305s
warmup-period = 300s


##########################################################
#            Simulation parameters                       #
##########################################################
debug-on-errors = true
print-undisposed = false

record-eventlog = false

**.scalar-recording = false
**.vector-recording = false


**.debug = false
**.coreDebug = false

*.playgroundSizeX = 20000m
*.playgroundSizeY = 2000m
*.playgroundSizeZ = 500m


##########################################################
# Annotation parameters                                  #
##########################################################
*.annotations.draw = false

##########################################################
# Obstacle parameters                                    #
##########################################################
#**.obstacles.debug = false
#**.obstacles.obstacles = xmldoc("config.xml", "//AnalogueModel[@type='SimpleObstacleShadowing']/obstacles")

##########################################################
#            WorldUtility parameters                     #
##########################################################
*.world.useTorus = false
*.world.use2D = false

##########################################################
#            TraCIScenarioManager parameters             #
##########################################################
*.manager.updateInterval = 0.1s
*.manager.host = "localhost"
*.manager.port = 9999
*.manager.moduleType = "org.car2x.veins.nodes.Car"
*.manager.moduleName = "node"
*.manager.moduleDisplayString = ""
*.manager.autoShutdown = false
*.manager.margin = 25
*.manager.launchConfig = xmldoc("highway.launchd.xml")
*.manager.firstStepAt = 300s
#

##########################################################
#                       RSU SETTINGS                     #
#                                                        #
#                                                        #
##########################################################
*.rsu[*].mobility.x = 100
*.rsu[*].mobility.y = 100
*.rsu[*].mobility.z = 1
*.rsu[*].applType = "TraCIDemoRSU11p"
*.rsu[*].appl.debug = false
*.rsu[*].appl.headerLength = 256 bit
*.rsu[*].appl.sendBeacons = false
*.rsu[*].appl.dataOnSch = false
*.rsu[*].appl.sendData = true
*.rsu[*].appl.beaconInterval = 1s
*.rsu[*].appl.beaconPriority = 3
*.rsu[*].appl.dataPriority = 2
*.rsu[*].appl.maxOffset = 0.005s


##########################################################
#            11p specific parameters                     #
#                                                        #
#                    NIC-Settings                        #
##########################################################
*.connectionManager.pMax = 50mW
*.connectionManager.sat = -89dBm
*.connectionManager.alpha = 2.0
*.connectionManager.carrierFrequency = 5.890e9 Hz
*.connectionManager.sendDirect = true

*.**.nic.mac1609_4.useServiceChannel = false
*.**.nic.smac.useServiceChannel=false
*.**.nic.mac1609_4.txPower = 50mW
*.**.nic.mac1609_4.bitrate = 3Mbps

*.**.nic.phy80211p.sensitivity = -89dBm
*.**.nic.phy80211p.useThermalNoise = true
*.**.nic.phy80211p.thermalNoise = -110dBm
*.**.nic.phy80211p.decider = xmldoc("config.xml")
*.**.nic.phy80211p.analogueModels = xmldoc("config.xml")
*.**.nic.phy80211p.usePropagationDelay = true

##########################################################
#                    WaveAppLayer                        #
##########################################################
*.node[*].applType = "TraCIDemo11p"
*.node[*].appl.debug = false
*.node[*].appl.headerLength = 256 bit
*.node[*].appl.sendBeacons = true
*.node[*].appl.dataOnSch = false
*.node[*].appl.sendData = true
*.node[*].appl.beaconInterval = 0.1s
*.node[*].appl.beaconPriority = 3
*.node[*].appl.dataPriority = 2
*.node[*].appl.maxOffset = 0.005s

##########################################################
#                      Mobility                          #
##########################################################
*.node[*].veinsmobilityType = "org.car2x.veins.modules.mobility.traci.TraCIMobility"
*.node[*].mobilityType = "TraCIMobility"
*.node[*].mobilityType.debug = true
*.node[*].veinsmobilityType.debug = true
*.node[*].veinsmobility.x = 0
*.node[*].veinsmobility.y = 0
*.node[*].veinsmobility.z = 1.895
*.node[*0].veinsmobility.accidentCount = 1
*.node[*0].veinsmobility.accidentStart = 75s
*.node[*0].veinsmobility.accidentDuration = 30s

[Config debug]
description = "(very slow!) draw and print additional debug information"
**.debug = true
**.coreDebug = true
*.annotations.draw = true


[Config TESTCW_CW_ALL_cars100_256bytes]
description = "*****"
*.node[*].applType = "EvalApp"
*.node[*].nicType= "qNIC"
**.debug = false
**.coreDebug = false
*.annotations.draw = false
#*.manager.numVehicles = 75
*.node[*].appl.cars=100
sim-time-limit = 600s #3 minutes
#sim-time-limit = 220s #3 minutes
#*.node[*].appl.beaconLengthBits = 3788bit  #512BYTES
*.node[*].appl.beaconLengthBits = 1744bit   #256BYTES
*.node[*].appl.beaconInterval = 0.1s
*.**.nic.smac.bitrate = 9Mbps
*.node[*].appl.sendBeacons = true
*.**.nic.smac.txPower = 1000mW

#*.**.nic.smac.CWmin=4095
#*.**.nic.smac.CWmin=2047
#*.**.nic.smac.CWmin=1023
#*.**.nic.smac.CWmin=511
#*.**.nic.smac.CWmin=255
#*.**.nic.smac.CWmin=127
#*.**.nic.smac.CWmin=63
#*.**.nic.smac.CWmin=31
#*.**.nic.smac.CWmin=15

*.**.nic.smac.learn=0
*.**.nic.appl.learn=0
*.**.nic.smac.trainTime=10000
*.node[*].appl.trainTime=10000
*.node[*].appl.ACKprob=0.08
#*.**.nic.mac1609_4.txPower = 50mW
#*.**.nic.mac1609_4.bitrate = 6Mbps
*.connectionManager.pMax = 1000mW
*.manager.firstStepAt = 300s

[Config TEST_CW_ALL_cars50_256bytes]
description = "*****"
*.node[*].applType = "EvalApp"
*.node[*].nicType= "qNIC"
**.debug = false
**.coreDebug = false
*.annotations.draw = false
#*.manager.numVehicles = 75
*.node[*].appl.cars=50
sim-time-limit = 600s #3 minutes
#sim-time-limit = 220s #3 minutes
#*.node[*].appl.beaconLengthBits = 3788bit  #512BYTES
*.node[*].appl.beaconLengthBits = 1744bit   #256BYTES
*.node[*].appl.beaconInterval = 0.1s
*.**.nic.smac.bitrate = 9Mbps
*.node[*].appl.sendBeacons = true
*.**.nic.smac.txPower = 1000mW
*.**.nic.smac.CWmin=1023
#*.**.nic.smac.CWmin=511
#*.**.nic.smac.CWmin=255
#*.**.nic.smac.CWmin=127
#*.**.nic.smac.CWmin=63
#.**.nic.smac.CWmin=31
#*.**.nic.smac.CWmin=15
*.**.nic.smac.learn=0
*.**.nic.appl.learn=0
*.**.nic.smac.trainTime=10000
*.node[*].appl.trainTime=10000
*.node[*].appl.ACKprob=0.08
#*.**.nic.mac1609_4.txPower = 50mW
#*.**.nic.mac1609_4.bitrate = 6Mbps
*.connectionManager.pMax = 1000mW
*.manager.firstStepAt = 300s


[Config cars50_256bytes]
description = "*****"
*.node[*].applType = "EvalApp"
*.node[*].nicType= "qNIC"
**.debug = false
**.coreDebug = false
*.annotations.draw = false
#*.manager.numVehicles = 75
*.node[*].appl.cars=50
sim-time-limit = 600s #3 minutes
#sim-time-limit = 220s #3 minutes
#*.node[*].appl.beaconLengthBits = 3788bit  #512BYTES
*.node[*].appl.beaconLengthBits = 1744bit   #256BYTES
*.node[*].appl.beaconInterval = 0.1s
*.**.nic.smac.bitrate = 9Mbps
*.node[*].appl.sendBeacons = true
*.**.nic.smac.txPower = 1000mW
#*.**.nic.smac.CWmin=15
*.**.nic.smac.learn=0
*.**.nic.appl.learn=0
*.**.nic.smac.trainTime=10000
*.node[*].appl.trainTime=10000
*.node[*].appl.ACKprob=0.08
#*.**.nic.mac1609_4.txPower = 50mW
#*.**.nic.mac1609_4.bitrate = 6Mbps
*.connectionManager.pMax = 1000mW
*.manager.firstStepAt = 300s

[Config cars50_256bytes_TRAIN_CCE]
description = "*****"
*.node[*].applType = "EvalApp"
*.node[*].nicType= "CCENic"
**.debug = false
**.coreDebug = false
*.annotations.draw = false
*.node[*].appl.cars=50
#*.manager.numVehicles = 75
sim-time-limit = 600s
#sim-time-limit = 330s #2 minutes
#*.node[*].appl.beaconLengthBits = 3788bit  #512BYTES
*.node[*].appl.beaconLengthBits = 1744bit   #256BYTES
*.node[*].appl.beaconInterval = 0.1s
*.node[*].appl.sendBeacons = true
*.**.nic.smac.bitrate = 9Mbps
*.**.nic.smac.txPower = 1000mW
*.**.nic.smac.CWmin=15
*.**.nic.smac.learn=1
*.node[*].appl.learn=1
*.**.nic.smac.trainTime=180
*.node[*].appl.trainTime=180
*.node[*].appl.ACKprob=0.04
#*.**.nic.mac1609_4.txPower = 50mW
#*.**.nic.mac1609_4.bitrate = 6Mbps
*.connectionManager.pMax = 1000mW
*.manager.firstStepAt = 300s

[Config cars50_256bytes_TRAIN_STD]
description = "*****"
*.node[*].applType = "EvalApp"
*.node[*].nicType= "qNIC"
**.debug = false
**.coreDebug = false
*.annotations.draw = false
*.node[*].appl.cars=50
#*.manager.numVehicles = 75
sim-time-limit = 600s
#sim-time-limit = 330s #short
#*.node[*].appl.beaconLengthBits = 3788bit  #512BYTES
*.node[*].appl.beaconLengthBits = 1744bit   #256BYTES
*.node[*].appl.beaconInterval = 0.1s
*.node[*].appl.sendBeacons = true
*.**.nic.smac.bitrate = 9Mbps
*.**.nic.smac.txPower = 1000mW
*.**.nic.smac.CWmin=15
*.**.nic.smac.learn=1
*.node[*].appl.learn=1
*.**.nic.smac.trainTime=180
*.node[*].appl.trainTime=180
*.node[*].appl.ACKprob=0.04
#*.**.nic.mac1609_4.txPower = 50mW
#*.**.nic.mac1609_4.bitrate = 6Mbps
*.connectionManager.pMax = 1000mW
*.manager.firstStepAt = 300s

[Config BEB_cars50_256bytes]
description = "*****"
*.node[*].applType = "EvalApp"
*.node[*].nicType= "BEBNic"
**.debug = false
**.coreDebug = false
*.annotations.draw = false
#*.manager.numVehicles = 25
*.node[*].appl.cars=50
sim-time-limit = 600s #2 minutes
#*.node[*].appl.beaconLengthBits = 3788bit  #512BYTES
*.node[*].appl.beaconLengthBits = 1744bit   #256BYTES
*.node[*].appl.beaconInterval = 0.1s
*.**.nic.smac.bitrate = 9Mbps
*.**.nic.smac.txPower = 1000mW
*.**.nic.smac.CWmin=15
*.**.nic.smac.learn=0
*.**.nic.appl.learn=0
*.**.nic.smac.trainTime=1000#no training, put time > than simulation time
*.node[*].appl.trainTime=1000
*.node[*].appl.ACKprob=0
#*.**.nic.mac1609_4.txPower = 50mW
#*.**.nic.mac1609_4.bitrate = 6Mbps
*.connectionManager.pMax = 1000mW
*.manager.firstStepAt = 300s



[Config BEB_cars100]
description = "*****"
*.node[*].applType = "EvalApp"
*.node[*].nicType= "BEBNic"
**.debug = false
**.coreDebug = false
*.annotations.draw = false
#*.manager.numVehicles = 25
*.node[*].appl.cars=100
sim-time-limit = 600s #2 minutes
#*.node[*].appl.beaconLengthBits = 3788bit  #512BYTES
*.node[*].appl.beaconLengthBits = 1744bit   #256BYTES
*.node[*].appl.beaconInterval = 0.1s
*.**.nic.smac.bitrate = 9Mbps
*.**.nic.smac.txPower = 1000mW
*.**.nic.smac.CWmin=15
*.**.nic.smac.learn=0
*.**.nic.appl.learn=0
*.**.nic.smac.trainTime=10000 #no training, put time > than simulation time
*.node[*].appl.trainTime=10000 
*.node[*].appl.ACKprob=0
#*.**.nic.mac1609_4.txPower = 50mW
#*.**.nic.mac1609_4.bitrate = 6Mbps
*.connectionManager.pMax = 1000mW
*.manager.firstStepAt = 300s


[Config cars100_256bytes]
description = "*****"
*.node[*].applType = "EvalApp"
*.node[*].nicType= "qNIC"
**.debug = false
**.coreDebug = false
*.annotations.draw = false
#*.manager.numVehicles = 75
*.node[*].appl.cars=100
sim-time-limit = 600s #3 minutes
#*.node[*].appl.beaconLengthBits = 3788bit  #512BYTES
*.node[*].appl.beaconLengthBits = 1744bit   #256BYTES
*.node[*].appl.beaconInterval = 0.1s
*.**.nic.smac.bitrate = 9Mbps
*.**.nic.smac.txPower = 1000mW
*.**.nic.smac.CWmin=15
*.**.nic.smac.learn=0
*.**.nic.appl.learn=0
*.**.nic.smac.trainTime=10000
*.node[*].appl.trainTime=10000
*.node[*].appl.ACKprob=0.02
#*.**.nic.mac1609_4.txPower = 50mW
#*.**.nic.mac1609_4.bitrate = 6Mbps
*.connectionManager.pMax = 1000mW
*.manager.firstStepAt = 300s


[Config cars100_256bytes_TRAIN_CCE]
description = "*****"
*.node[*].applType = "EvalApp"
*.node[*].nicType= "CCENic"
**.debug = false
**.coreDebug = false
*.annotations.draw = false
*.node[*].appl.cars=100
#*.node[*].smac.cars=100
#*.manager.numVehicles = 75
sim-time-limit = 600s #2 minutes
#*.node[*].appl.beaconLengthBits = 3788bit  #512BYTES
*.node[*].appl.beaconLengthBits = 1744bit   #256BYTES
*.node[*].appl.beaconInterval = 0.1s
*.node[*].appl.sendBeacons = true
*.**.nic.smac.bitrate = 9Mbps
*.**.nic.smac.txPower = 1000mW
*.**.nic.smac.CWmin=15
*.**.nic.smac.learn=1
*.node[*].appl.learn=1
*.**.nic.smac.trainTime=180
*.node[*].appl.trainTime=180
*.node[*].appl.ACKprob=0.02
#*.**.nic.mac1609_4.txPower = 50mW
#*.**.nic.mac1609_4.bitrate = 6Mbps
*.connectionManager.pMax = 1000mW
*.manager.firstStepAt = 300s

[Config cars100_256bytes_TRAIN_STD]
description = "*****"
*.node[*].applType = "EvalApp"
*.node[*].nicType= "qNIC"
**.debug = false
**.coreDebug = false
*.annotations.draw = false
*.node[*].appl.cars=100
#*.manager.numVehicles = 75
sim-time-limit = 600s #2 minutes
#*.node[*].appl.beaconLengthBits = 3788bit  #512BYTES
*.node[*].appl.beaconLengthBits = 1744bit   #256BYTES
*.node[*].appl.beaconInterval = 0.1s
*.node[*].appl.sendBeacons = true
*.**.nic.smac.bitrate = 9Mbps
*.**.nic.smac.txPower = 1000mW
*.**.nic.smac.CWmin=15
*.**.nic.smac.learn=1
*.node[*].appl.learn=1
*.**.nic.smac.trainTime=180
*.node[*].appl.trainTime=180
*.node[*].appl.ACKprob=0.02
#*.**.nic.mac1609_4.txPower = 50mW
#*.**.nic.mac1609_4.bitrate = 6Mbps
*.connectionManager.pMax = 1000mW
*.manager.firstStepAt = 300s
